L24/1726516/Reguladores.dss
! REGULADORES — gerados de UNREMT
! vreg = 122 V e band = 2 V — AJUSTES TIPICOS, nao de campo.
! kVA = 5000 adotado; a BDGD nao traz a potencia do regulador.
! O ptratio segue a tensao de cada alimentador (TP para 120 V).
New Transformer.REG_367788154_1 phases=1 windings=2 XHL=0.04
~ buses=[segm_367788203.1 segm_367788142.1] conns=[wye wye]
~ kVs=[7.9674 7.9674] kVAs=[5000 5000] %Rs=[0.01 0.01]
~ maxtap=1.10 mintap=0.90 numtaps=32
New RegControl.RC_REG_367788154_1 transformer=REG_367788154_1 winding=2 vreg=122 band=2 ptratio=66.4 delay=15 maxtapchange=1
New Transformer.REG_367788154_2 phases=1 windings=2 XHL=0.04
~ buses=[segm_367788203.2 segm_367788142.2] conns=[wye wye]
~ kVs=[7.9674 7.9674] kVAs=[5000 5000] %Rs=[0.01 0.01]
~ maxtap=1.10 mintap=0.90 numtaps=32
New RegControl.RC_REG_367788154_2 transformer=REG_367788154_2 winding=2 vreg=122 band=2 ptratio=66.4 delay=15 maxtapchange=1
New Transformer.REG_367788154_3 phases=1 windings=2 XHL=0.04
~ buses=[segm_367788203.3 segm_367788142.3] conns=[wye wye]
~ kVs=[7.9674 7.9674] kVAs=[5000 5000] %Rs=[0.01 0.01]
~ maxtap=1.10 mintap=0.90 numtaps=32
New RegControl.RC_REG_367788154_3 transformer=REG_367788154_3 winding=2 vreg=122 band=2 ptratio=66.4 delay=15 maxtapchange=1
New Transformer.REG_367788450_1 phases=1 windings=2 XHL=0.04
~ buses=[segm_367788499.1 segm_367788438.1] conns=[wye wye]
~ kVs=[7.9674 7.9674] kVAs=[5000 5000] %Rs=[0.01 0.01]
~ maxtap=1.10 mintap=0.90 numtaps=32
New RegControl.RC_REG_367788450_1 transformer=REG_367788450_1 winding=2 vreg=122 band=2 ptratio=66.4 delay=15 maxtapchange=1
New Transformer.REG_367788450_2 phases=1 windings=2 XHL=0.04
~ buses=[segm_367788499.2 segm_367788438.2] conns=[wye wye]
~ kVs=[7.9674 7.9674] kVAs=[5000 5000] %Rs=[0.01 0.01]
~ maxtap=1.10 mintap=0.90 numtaps=32
New RegControl.RC_REG_367788450_2 transformer=REG_367788450_2 winding=2 vreg=122 band=2 ptratio=66.4 delay=15 maxtapchange=1
New Transformer.REG_367788450_3 phases=1 windings=2 XHL=0.04
~ buses=[segm_367788499.3 segm_367788438.3] conns=[wye wye]
~ kVs=[7.9674 7.9674] kVAs=[5000 5000] %Rs=[0.01 0.01]
~ maxtap=1.10 mintap=0.90 numtaps=32
New RegControl.RC_REG_367788450_3 transformer=REG_367788450_3 winding=2 vreg=122 band=2 ptratio=66.4 delay=15 maxtapchange=1
New Transformer.REG_367788524_1 phases=1 windings=2 XHL=0.04
~ buses=[segm_367788573.1 segm_367788512.1] conns=[wye wye]
~ kVs=[7.9674 7.9674] kVAs=[5000 5000] %Rs=[0.01 0.01]
~ maxtap=1.10 mintap=0.90 numtaps=32
New RegControl.RC_REG_367788524_1 transformer=REG_367788524_1 winding=2 vreg=122 band=2 ptratio=66.4 delay=15 maxtapchange=1
New Transformer.REG_367788524_2 phases=1 windings=2 XHL=0.04
~ buses=[segm_367788573.2 segm_367788512.2] conns=[wye wye]
~ kVs=[7.9674 7.9674] kVAs=[5000 5000] %Rs=[0.01 0.01]
~ maxtap=1.10 mintap=0.90 numtaps=32
New RegControl.RC_REG_367788524_2 transformer=REG_367788524_2 winding=2 vreg=122 band=2 ptratio=66.4 delay=15 maxtapchange=1
New Transformer.REG_367788524_3 phases=1 windings=2 XHL=0.04
~ buses=[segm_367788573.3 segm_367788512.3] conns=[wye wye]
~ kVs=[7.9674 7.9674] kVAs=[5000 5000] %Rs=[0.01 0.01]
~ maxtap=1.10 mintap=0.90 numtaps=32
New RegControl.RC_REG_367788524_3 transformer=REG_367788524_3 winding=2 vreg=122 band=2 ptratio=66.4 delay=15 maxtapchange=1
New Transformer.REG_367788080_1 phases=1 windings=2 XHL=0.04
~ buses=[segm_367788129.1 segm_367788068.1] conns=[wye wye]
~ kVs=[7.9674 7.9674] kVAs=[5000 5000] %Rs=[0.01 0.01]
~ maxtap=1.10 mintap=0.90 numtaps=32
New RegControl.RC_REG_367788080_1 transformer=REG_367788080_1 winding=2 vreg=122 band=2 ptratio=66.4 delay=15 maxtapchange=1
New Transformer.REG_367788080_2 phases=1 windings=2 XHL=0.04
~ buses=[segm_367788129.2 segm_367788068.2] conns=[wye wye]
~ kVs=[7.9674 7.9674] kVAs=[5000 5000] %Rs=[0.01 0.01]
~ maxtap=1.10 mintap=0.90 numtaps=32
New RegControl.RC_REG_367788080_2 transformer=REG_367788080_2 winding=2 vreg=122 band=2 ptratio=66.4 delay=15 maxtapchange=1
New Transformer.REG_367788080_3 phases=1 windings=2 XHL=0.04
~ buses=[segm_367788129.3 segm_367788068.3] conns=[wye wye]
~ kVs=[7.9674 7.9674] kVAs=[5000 5000] %Rs=[0.01 0.01]
~ maxtap=1.10 mintap=0.90 numtaps=32
New RegControl.RC_REG_367788080_3 transformer=REG_367788080_3 winding=2 vreg=122 band=2 ptratio=66.4 delay=15 maxtapchange=1
New Transformer.REG_367788228_1 phases=1 windings=2 XHL=0.04
~ buses=[segm_367788277.1 segm_367788216.1] conns=[wye wye]
~ kVs=[7.9674 7.9674] kVAs=[5000 5000] %Rs=[0.01 0.01]
~ maxtap=1.10 mintap=0.90 numtaps=32
New RegControl.RC_REG_367788228_1 transformer=REG_367788228_1 winding=2 vreg=122 band=2 ptratio=66.4 delay=15 maxtapchange=1
New Transformer.REG_367788228_2 phases=1 windings=2 XHL=0.04
~ buses=[segm_367788277.2 segm_367788216.2] conns=[wye wye]
~ kVs=[7.9674 7.9674] kVAs=[5000 5000] %Rs=[0.01 0.01]
~ maxtap=1.10 mintap=0.90 numtaps=32
New RegControl.RC_REG_367788228_2 transformer=REG_367788228_2 winding=2 vreg=122 band=2 ptratio=66.4 delay=15 maxtapchange=1
New Transformer.REG_367788228_3 phases=1 windings=2 XHL=0.04
~ buses=[segm_367788277.3 segm_367788216.3] conns=[wye wye]
~ kVs=[7.9674 7.9674] kVAs=[5000 5000] %Rs=[0.01 0.01]
~ maxtap=1.10 mintap=0.90 numtaps=32
New RegControl.RC_REG_367788228_3 transformer=REG_367788228_3 winding=2 vreg=122 band=2 ptratio=66.4 delay=15 maxtapchange=1
New Transformer.REG_367788302_1 phases=1 windings=2 XHL=0.04
~ buses=[segm_367788351.1 segm_367788290.1] conns=[wye wye]
~ kVs=[7.9674 7.9674] kVAs=[5000 5000] %Rs=[0.01 0.01]
~ maxtap=1.10 mintap=0.90 numtaps=32
New RegControl.RC_REG_367788302_1 transformer=REG_367788302_1 winding=2 vreg=122 band=2 ptratio=66.4 delay=15 maxtapchange=1
New Transformer.REG_367788302_2 phases=1 windings=2 XHL=0.04
~ buses=[segm_367788351.2 segm_367788290.2] conns=[wye wye]
~ kVs=[7.9674 7.9674] kVAs=[5000 5000] %Rs=[0.01 0.01]
~ maxtap=1.10 mintap=0.90 numtaps=32
New RegControl.RC_REG_367788302_2 transformer=REG_367788302_2 winding=2 vreg=122 band=2 ptratio=66.4 delay=15 maxtapchange=1
New Transformer.REG_367788302_3 phases=1 windings=2 XHL=0.04
~ buses=[segm_367788351.3 segm_367788290.3] conns=[wye wye]
~ kVs=[7.9674 7.9674] kVAs=[5000 5000] %Rs=[0.01 0.01]
~ maxtap=1.10 mintap=0.90 numtaps=32
New RegControl.RC_REG_367788302_3 transformer=REG_367788302_3 winding=2 vreg=122 band=2 ptratio=66.4 delay=15 maxtapchange=1
New Transformer.REG_367788376_1 phases=1 windings=2 XHL=0.04
~ buses=[segm_367788425.1 segm_367788364.1] conns=[wye wye]
~ kVs=[7.9674 7.9674] kVAs=[5000 5000] %Rs=[0.01 0.01]
~ maxtap=1.10 mintap=0.90 numtaps=32
New RegControl.RC_REG_367788376_1 transformer=REG_367788376_1 winding=2 vreg=122 band=2 ptratio=66.4 delay=15 maxtapchange=1
New Transformer.REG_367788376_2 phases=1 windings=2 XHL=0.04
~ buses=[segm_367788425.2 segm_367788364.2] conns=[wye wye]
~ kVs=[7.9674 7.9674] kVAs=[5000 5000] %Rs=[0.01 0.01]
~ maxtap=1.10 mintap=0.90 numtaps=32
New RegControl.RC_REG_367788376_2 transformer=REG_367788376_2 winding=2 vreg=122 band=2 ptratio=66.4 delay=15 maxtapchange=1
New Transformer.REG_367788376_3 phases=1 windings=2 XHL=0.04
~ buses=[segm_367788425.3 segm_367788364.3] conns=[wye wye]
~ kVs=[7.9674 7.9674] kVAs=[5000 5000] %Rs=[0.01 0.01]
~ maxtap=1.10 mintap=0.90 numtaps=32
New RegControl.RC_REG_367788376_3 transformer=REG_367788376_3 winding=2 vreg=122 band=2 ptratio=66.4 delay=15 maxtapchange=1
New Transformer.REG_367788598_1 phases=1 windings=2 XHL=0.04
~ buses=[segm_367788647.1 segm_367788586.1] conns=[wye wye]
~ kVs=[7.9674 7.9674] kVAs=[5000 5000] %Rs=[0.01 0.01]
~ maxtap=1.10 mintap=0.90 numtaps=32
New RegControl.RC_REG_367788598_1 transformer=REG_367788598_1 winding=2 vreg=122 band=2 ptratio=66.4 delay=15 maxtapchange=1
New Transformer.REG_367788598_2 phases=1 windings=2 XHL=0.04
~ buses=[segm_367788647.2 segm_367788586.2] conns=[wye wye]
~ kVs=[7.9674 7.9674] kVAs=[5000 5000] %Rs=[0.01 0.01]
~ maxtap=1.10 mintap=0.90 numtaps=32
New RegControl.RC_REG_367788598_2 transformer=REG_367788598_2 winding=2 vreg=122 band=2 ptratio=66.4 delay=15 maxtapchange=1
New Transformer.REG_367788598_3 phases=1 windings=2 XHL=0.04
~ buses=[segm_367788647.3 segm_367788586.3] conns=[wye wye]
~ kVs=[7.9674 7.9674] kVAs=[5000 5000] %Rs=[0.01 0.01]
~ maxtap=1.10 mintap=0.90 numtaps=32
New RegControl.RC_REG_367788598_3 transformer=REG_367788598_3 winding=2 vreg=122 band=2 ptratio=66.4 delay=15 maxtapchange=1
